LTspice 24.1.9 for Windows
Circuit: C:\Users\seanb\Documents\Trinity-ENGR305-Microelectronic-Circuits\lab01\Draft1.net
Start Time: Fri Sep  5 14:03:00 2025
solver = Normal
Maximum thread count: 16
tnom = 27
temp = 27
method = trap
.OP point found by inspection.
.step 
Total elapsed time: 0.089 seconds.

Files loaded:
C:\Users\seanb\Documents\Trinity-ENGR305-Microelectronic-Circuits\lab01\Draft1.net
C:\Users\seanb\AppData\Local\LTspice\lib\cmp\standard.dio

