LTspice 24.1.9 for Windows
Circuit: C:\Users\seanb\Documents\Trinity-ENGR305-Microelectronic-Circuits\lab03\HalfWaveRectifier.net
Start Time: Fri Sep 19 13:51:34 2025
solver = Normal
Maximum thread count: 16
tnom = 27
temp = 27
method = trap
.OP point found by inspection.
Total elapsed time: 0.179 seconds.

Files loaded:
C:\Users\seanb\Documents\Trinity-ENGR305-Microelectronic-Circuits\lab03\HalfWaveRectifier.net
C:\Users\seanb\AppData\Local\LTspice\lib\cmp\standard.dio

